LAMMPS (09 Jan 2020)
package omp 0
units			real
atom_style		charge
read_data input_files/d0_lmps.dat
  orthogonal box = (-15 -15 -15) to (50 50 50)
  reading atoms ...
  936 atoms
reset_timestep		0

pair_style              reax/c lmp_control lgvdw yes
pair_coeff              * * ffield C H O N

neighbor		2.5 bin
neigh_modify		delay 0 every 5 check no

fix			qeq all qeq/reax 1 0.0 10.0 1e-6 reax/c
fix			bonds all reax/c/bonds 500 bonds.reaxc
fix			npt all npt temp 300 300 100 iso 1.0 1.0 2000
fix 1 all reax/c/species 10 10 100 species.out cutoff 1 4 0.25

thermo			100
thermo_style            custom step temp pe etotal press vol density
thermo_modify           flush yes

timestep		0.25

dump			1 all custom 1000 dump/dump.reax.npt.* id type xu yu zu
restart			500 restart.npt300 restart.npt300
run 1000000
Last active /omp style is pair_style reax/c/omp
  update every 100 steps, delay 0 steps, check no
Step Temp PotEng TotEng Press Volume Density
0            0   -111109.29   -111109.29    207.54027       274625  0.038816842
Averages over the last 5001 of 10001 rows, steps 500000 to 1000000:
Temp PotEng TotEng Press Volume Density
299.77 -111474 -110639 29.5598 12544.8 0.891771
Loop time of 86315.8 on 1 procs for 1000000 steps with 936 atoms

Please see the log.cite file for references relevant to this simulation
